[General]
  version = 2.05
  date    = March 19, 2010
  attc:institution = Deltares
  attc:references = http://www.deltares.nl
  attc:Comment = Comment read from nefis.ini
===============================================================================
[filetype]
  Name    = Delft3D-com
  Group   = com-version
[filetype]
  Name    = Delft3D-trim
  Group   = map-version
[filetype]
  Name    = Delft3D-trih
  Group   = his-version
[filetype]
  Name    = Delft3D-trid
  Group   = dro-version
[filetype]
  Name    = Delft3D-track
  Group   = trk-series
[filetype]
  Name    = Delft3D-wavm
  Group   = map-series
  Element = HSIGN
  Group2  = map-series
  Element2= DATE_TIME
[filetype]
  Name    = Delft3D-hwgxy
  Group   = map-series
  Element = HSIGN
[filetype]
  Name    = Delft3D-tram
  Group   = MAPATRANNTR
  Element = NTR
[filetype]
  Name    = Delft3D-trah
  Group   = HISTRANNTRM
  Element = NTRM
[filetype]
  Name    = Delft3D-botm
  Group   = MAPBOT
  Element = NTMBOT
[filetype]
  Name    = Delft3D-both
  Group   = HISBOT
  Element = NTHBOT
[filetype]
  Name    = Delft3D-bagr
  Group   = MAPBGREF
[filetype]
  Name    = Delft3D-waq-unkown
  Group   = DELWAQ_PARAMS
[filetype]
  Name    = Delft3D-par-plot
  Group   = PLO-VERSION
[filetype]
  Name    = Delft3D-par-psf
  Group   = PSF-VERSION
[filetype]
  Name    = Delft3D-par-unknown
  Group   = DELWAQ_PARAMS
[filetype]
  Name    = Pharos
  Group   = GRID_coor
  Element = X_coor
[filetype]
  Name    = Skylla
  Group   = GEOMETRY
  Element = ICOD
[filetype]
  Name    = Delft3D-com
  Group   = WAVNT
  Element = NTWAV
[filetype]
  Name    = Delft3D-com
  Group   = CURTIM
  Element = TIMCUR
[filetype]
  Name    = Delft3D-trim
  Group   = map-info-series
[filetype]
  Name    = Delft3D-trih
  Group   = his-info-series
[filetype]
  Name    = SOBEK-output
  Group   = FLOW-MAP-GROUP
===============================================================================
[General]
  attc:institution = Deltares
  attc:references = http://www.deltares.nl
  attc:Comment = Comment read from nefis.ini
===============================================================================
[SOBEK-output:Group:FLOW-MAP-GROUP]
  Dimension1 = TIME
[SOBEK-output:Element:MAP_h]
  Dimension1 = Location
[SOBEK-output:Element:MAP_Am]
  Dimension1 = Location
[SOBEK-output:Element:MAP_Qt]
  Dimension1 = Location
[SOBEK-output:Element:MAP_Qm]
  Dimension1 = Location
[SOBEK-output:Element:report_time_step]
  Dimension1 = daytime
[SOBEK-output:Virtual:waterlevel]
  Type       = alias
  Requires1  = FLOW-MAP-GROUP:MAP_h
[SOBEK-output:Virtual:flow_area_main_section]
  Type       = alias
  Requires1  = FLOW-MAP-GROUP:MAP_Am
[SOBEK-output:Virtual:discharge]
  Type       = alias
  Requires1  = FLOW-MAP-GROUP:MAP_Qt
[SOBEK-output:Virtual:discharge_main_section]
  Type       = alias
  Requires1  = FLOW-MAP-GROUP:MAP_Qm
[SOBEK-output:Virtual:time]
  Type       = alias
  Requires1  = FLOW-MAP-GROUP:report_time_step
-------------------------------------------------------------------------------
[SOBEK-output:Group:SALT-MAP-GROUP]
  Dimension1 = TIME_SALT
[SOBEK-output:Element:MAP_Cs]
  Dimension1 = Location
[SOBEK-output:Element:MAP_Ds]
  Dimension1 = Location
[SOBEK-output:Element:MAP_Rho]
  Dimension1 = Location
[SOBEK-output:Virtual:salinity]
  Type       = alias
  Requires1  = SALT-MAP-GROUP:MAP_Cs
[SOBEK-output:Virtual:dispersion_coefficient]
  Type       = alias
  Requires1  = SALT-MAP-GROUP:MAP_Ds
[SOBEK-output:Virtual:density]
  Type       = alias
  Requires1  = SALT-MAP-GROUP:MAP_Rho
[SOBEK-output:Virtual:time_SALT]
  Type       = alias
  Requires1  = SALT-MAP-GROUP:report_time_step
-------------------------------------------------------------------------------
[SOBEK-output:Group:SEDT-MAP-GROUP]
  Dimension1 = TIME_SEDT
[SOBEK-output:Element:MAP_St]
  Dimension1 = Location
[SOBEK-output:Virtual:sediment_transport]
  Type       = alias
  Requires1  = SEDT-MAP-GROUP:MAP_St
[SOBEK-output:Virtual:time_SEDT]
  Type       = alias
  Requires1  = SEDT-MAP-GROUP:report_time_step
-------------------------------------------------------------------------------
[SOBEK-output:Group:MORP-MAP-GROUP]
  Dimension1 = TIME_MORP
[SOBEK-output:Element:MAP_Zb]
  Dimension1 = Location
[SOBEK-output:Virtual:bedlevel]
  Type       = alias
  Requires1  = MORP-MAP-GROUP:MAP_Zb
[SOBEK-output:Virtual:time_MORP]
  Type       = alias
  Requires1  = MORP-MAP-GROUP:report_time_step
===============================================================================
[Delft3D-trih:Group:his-series]
  Dimension1 = TIME
  TimeType   = trih-type
  TimeVar    = his-info-series:ITHISC
  TimeOffset = his-const:ITDATE
[Delft3D-trih:Element:ZWL]
  Dimension1 = Station
[Delft3D-trih:Element:ZCURU]
  Dimension1 = Station
  Dimension2 = Layer
[Delft3D-trih:Element:ZCURV]
  Dimension1 = Station
  Dimension2 = Layer
[Delft3D-trih:Element:ZCURW]
  Dimension1 = Station
  Dimension2 = Layer
[Delft3D-trih:Element:ZQXK]
  Dimension1 = Station
  Dimension2 = Layer
[Delft3D-trih:Element:ZQYK]
  Dimension1 = Station
  Dimension2 = Layer
[Delft3D-trih:Element:GRO]
  Dimension1 = Station
  Dimension2 = Layer
  Dimension3 = Substance
[Delft3D-trih:Element:ZTUR]
  Dimension1 = Station
  Dimension2 = LayerInterf
  Dimension3 = TurbQuantity
[Delft3D-trih:Element:ZTAUKS]
  Dimension1 = Station
[Delft3D-trih:Element:ZTAUET]
  Dimension1 = Station
[Delft3D-trih:Element:ZVICWW]
  Dimension1 = Station
  Dimension2 = LayerInterf
[Delft3D-trih:Element:ZDICWW]
  Dimension1 = Station
  Dimension2 = LayerInterf
[Delft3D-trih:Element:ZRICH]
  Dimension1 = Station
  Dimension2 = LayerInterf
[Delft3D-trih:Element:ZRHO]
  Dimension1 = Station
  Dimension2 = Layer
[Delft3D-trih:Element:HYDPRES]
  Dimension1 = Station
  Dimension2 = Layer
[Delft3D-trih:Element:FLTR]
  Dimension1 = CrossSection
[Delft3D-trih:Element:CTR]
  Dimension1 = CrossSection
[Delft3D-trih:Element:ATR]
  Dimension1 = CrossSection
  Dimension2 = Substance
[Delft3D-trih:Element:DTR]
  Dimension1 = CrossSection
  Dimension2 = Substance
===============================================================================
[Delft3D-trim:Group:map-const]
  Dimension1 = DUMMY
[Delft3D-trim:Element:ITDATE]
  Dimension1 = 2
[Delft3D-trim:Element:TUNIT]
  Dimension1 = SCALAR
[Delft3D-trim:Element:DT]
  Dimension1 = SCALAR
[Delft3D-trim:Element:SIMDAT]
  Dimension1 = SCALAR
[Delft3D-trim:Element:SELMAP]
  Dimension1 = SCALAR
[Delft3D-trim:Element:NMAX]
  Dimension1 = SCALAR
[Delft3D-trim:Element:MMAX]
  Dimension1 = SCALAR
[Delft3D-trim:Element:KMAX]
  Dimension1 = SCALAR
[Delft3D-trim:Element:LSTCI]
  Dimension1 = SCALAR
[Delft3D-trim:Element:LTUR]
  Dimension1 = SCALAR
[Delft3D-trim:Element:NOSTAT]
  Dimension1 = SCALAR
[Delft3D-trim:Element:NSRC]
  Dimension1 = SCALAR
[Delft3D-trim:Element:NTRUV]
  Dimension1 = SCALAR
[Delft3D-trim:Element:GRDANG]
  Dimension1 = SCALAR
[Delft3D-trim:Element:DRYFLP]
  Dimension1 = SCALAR
[Delft3D-trim:Element:NOROW]
  Dimension1 = SCALAR
[Delft3D-trim:Element:NOROCO]
  Dimension1 = SCALAR
[Delft3D-trim:Element:IROCOL]
  Dimension1 = 5
  Dimension2 = NOROCO
[Delft3D-trim:Element:THICK]
  Dimension1 = Layer
[Delft3D-trim:Virtual:Layer]
  Type       = coord-THICK
  Requires1  = map-const:THICK
  Include1   = waterlevel
  Include2   = transient_depth
  attc:long_name = vertical coordinate
  attc:standard_name = ocean_sigma_coordinate
  attc:formula_terms = s: Layer eta: waterlevel depth: transient_depth
  attx:units = [remove]
[Delft3D-trim:Virtual:LayerInterf]
  Type       = coord-THICK-interf
  Dimension1 = LayerInterf
  Requires1  = map-const:THICK
  Include1   = waterlevel
  Include2   = transient_depth
  attc:long_name = vertical coordinate
  attc:standard_name = ocean_sigma_coordinate
  attc:formula_terms = s: LayerInterf eta: waterlevel depth: transient_depth
  attx:units = [remove]
[Delft3D-trim:Element:NAMCON]
  Dimension1 = Subst_or_TurbQuant
[Delft3D-trim:Element:MNSTAT]
  Dimension1 = 2
  Dimension2 = Station
[Delft3D-trim:Element:NAMST]
  Dimension1 = Station
[Delft3D-trim:Element:MNKSRC:1]
  Dimension1 = SCALAR
[Delft3D-trim:Element:MNKSRC]
  Dimension1 = 7
  Dimension2 = Discharge
[Delft3D-trim:Element:NAMSRC]
  Dimension1 = Discharge
[Delft3D-trim:Element:MNTRA:1]
  Dimension1 = SCALAR
[Delft3D-trim:Element:MNTRA]
  Dimension1 = 4
  Dimension2 = CrossSection
[Delft3D-trim:Element:NAMTRA]
  Dimension1 = CrossSection
[Delft3D-trim:Element:LSED]
  Dimension1 = SCALAR
[Delft3D-trim:Element:LSEDBL]
  Dimension1 = SCALAR
[Delft3D-trim:Element:NAMSED]
  Dimension1 = LSED
[Delft3D-trim:Virtual:SedimentFrac]
  Type       = alias
  Dimension1 = SedimentFrac
  Requires1  = map-const:NAMSED
  attc:long_name = sediment fraction names
[Delft3D-trim:Virtual:SuspSedimentFrac]
  Type       = alias
  Requires1  = map-const:NAMCON
  Requires2  = map-const:NAMSED
  Dimension1 = SuspSedimentFrac
  SliceDim   = 1
  SliceType  = ismember
  SliceQnt   = 1
  SliceSet   = 2
  SliceCaseSens = false
  attc:long_name = suspended sediment fraction names
[Delft3D-trim:Element:COORDINATES]
  Dimension1 = SCALAR
[Delft3D-trim:Element:LAYER_MODEL]
  Dimension1 = SCALAR
[Delft3D-trim:Virtual:grid]
  Type       = vector
  Requires1  = grid_x
  Requires2  = grid_y
[Delft3D-trim:Virtual:grid_x]
  Type       = alias
  Requires1  = map-const:XCOR
  attc:units = meter
  attc:long_name = grid points, x-coordinate
[Delft3D-trim:Virtual:grid_y]
  Type       = alias
  Requires1  = map-const:YCOR
  attc:units = meter
  attc:long_name = grid points, y-coordinate
[Delft3D-trim:Element:XCOR]
  Dimension1 = N
  Dimension2 = M
  DimOrder   = 2 1
  attc:standard_name = projection_x_coordinate
[Delft3D-trim:Element:YCOR]
  Dimension1 = N
  Dimension2 = M
  DimOrder   = 2 1
  attc:standard_name = projection_y_coordinate
[Delft3D-trim:Virtual:zgrid]
  Type       = vector
  Requires1  = zgrid_x
  Requires2  = zgrid_y
  Include1   = zactive
[Delft3D-trim:Virtual:zgrid3]
  Type       = vector
  Requires1  = zgrid_x
  Requires2  = zgrid_y
  Include1   = zactive
  Include2   = Layer
  Include3   = LayerInterf
[Delft3D-trim:Virtual:zgrid_x]
  Type       = alias
  Requires1  = map-const:XZ
  attc:units = meter
  attc:long_name = grid cell centres, x-coordinate
  attc:active = zactive
[Delft3D-trim:Virtual:zgrid_y]
  Type       = alias
  Requires1  = map-const:YZ
  attc:units = meter
  attc:long_name = grid cell centres, y-coordinate
  attc:active = zactive
[Delft3D-trim:Element:XZ]
  Dimension1 = N
  Dimension2 = M
  DimOrder   = 2 1
  attc:standard_name = projection_x_coordinate
[Delft3D-trim:Element:YZ]
  Dimension1 = N
  Dimension2 = M
  DimOrder   = 2 1
  attc:standard_name = projection_y_coordinate
[Delft3D-trim:Element:ALFAS]
  Dimension1 = N
  Dimension2 = M
  DimOrder   = 2 1
  attc:coordinates = map-const:YZ map-const:XZ
[Delft3D-trim:Virtual:zactive]
  Type       = alias
  Requires1  = map-const:KCS
  Include1   = zgrid
  attc:units = 1
  attc:long_name = active water-level point
  attc:coordinates = zgrid_y zgrid_x
[Delft3D-trim:Element:KCS]
  Dimension1 = N
  Dimension2 = M
  DimOrder   = 2 1
  Include1   = map-const:XZ
  Include2   = map-const:YZ
  attc:coordinates = map-const:YZ map-const:XZ
[Delft3D-trim:Element:KCU]
  Dimension1 = N
  Dimension2 = M
  DimOrder   = 2 1
[Delft3D-trim:Element:KCV]
  Dimension1 = N
  Dimension2 = M
  DimOrder   = 2 1
[Delft3D-trim:Virtual:depth]
  Type       = alias
  Requires1  = map-const:DP0
  Include1   = grid
  attc:units = meter
  attc:coordinates = grid_y grid_x
[Delft3D-trim:Element:DP0]
  Dimension1 = N
  Dimension2 = M
  DimOrder   = 2 1
  attc:standard_name = sea_floor_depth
  attc:positive = down
  attc:coordinates = map-const:YCOR map-const:XCOR
[Delft3D-trim:Virtual:zdepth]
  Type       = alias
  Alternate  = zdepth_from_dp0
  Requires1  = map-const:DPS0
  Include1   = zgrid
  attc:units = meter
  attc:long_name = initial depth
  attc:standard_name = sea_floor_depth
  attc:positive = down
  attc:coordinates = zgrid_y zgrid_x
[Delft3D-trim:Virtual:zdepth_from_dp0]
  Type       = reconstruct-zdepth
  Requires1  = map-const:DP0
  Requires2  = map-const:DRYFLP
  Include1   = zgrid
  attc:units = meter
  attc:long_name = initial depth
  attc:standard_name = sea_floor_depth
  attc:positive = down
  attc:coordinates = zgrid_y zgrid_x
[Delft3D-trim:Element:DPS0]
  Dimension1 = N
  Dimension2 = M
  DimOrder   = 2 1
  attc:standard_name = sea_floor_depth
  attc:positive = down
  attc:coordinates = map-const:YZ map-const:XZ
-------------------------------------------------------------------------------
[Delft3D-trim:Group:map-version]
  Dimension1 = DUMMY
[Delft3D-trim:Element:SYSTXT]
  Dimension1 = 13
[Delft3D-trim:Element:RUNTXT]
  Dimension1 = 10
[Delft3D-trim:Element:FLOW-SIMDAT]
  Dimension1 = SCALAR
[Delft3D-trim:Element:FLOW-SYSTXT]
  Dimension1 = SCALAR
[Delft3D-trim:Element:FLOW-RUNTXT]
  Dimension1 = 10
[Delft3D-trim:Element:FILE-VERSION]
  Dimension1 = SCALAR
-------------------------------------------------------------------------------
[Delft3D-trim:Group:TEMPOUT]
  Dimension1 = DUMMY
[Delft3D-trim:Element:XWAT]
  Dimension1 = N
  Dimension2 = M
  DimOrder   = 2 1
  attc:standard_name = projection_x_coordinate
[Delft3D-trim:Element:YWAT]
  Dimension1 = N
  Dimension2 = M
  DimOrder   = 2 1
  attc:standard_name = projection_y_coordinate
[Delft3D-trim:Element:CODB]
  Dimension1 = N
  Dimension2 = M
  DimOrder   = 2 1
[Delft3D-trim:Element:CODW]
  Dimension1 = N
  Dimension2 = M
  DimOrder   = 2 1
-------------------------------------------------------------------------------
[Delft3D-trim:Group:map-info-series]
  Dimension1 = TIME
  TimeType   = trih-type
  TimeVar    = map-info-series:ITMAPC
  TimeOffset = map-const:ITDATE
[Delft3D-trim:Element:ITMAPC]
  Dimension1 = SCALAR
-------------------------------------------------------------------------------
[Delft3D-trim:Group:map-series]
  Dimension1 = TIME
  TimeType   = trih-type
  TimeVar    = map-info-series:ITMAPC
  TimeOffset = map-const:ITDATE
[Delft3D-trim:Virtual:waterlevel]
  Type       = alias
  Requires1  = map-series:S1
  Include1   = zgrid
  attc:units = meter
  attc:long_name = water level
  attc:standard_name = sea_surface_elevation
  attc:coordinates = zgrid_y zgrid_x
  attf:missing_value = -999.0
  attf:_FillValue = -999.0
[Delft3D-trim:Virtual:velocity]
  Type       = vector
  Requires1  = velocity_x
  Requires2  = velocity_y
  Include1   = zgrid3
  Include2   = zactive
[Delft3D-trim:Virtual:velocity_x]
  Type               = vector-uv2centre-x
  Requires1          = map-series:U1
  Requires2          = map-series:V1
  Requires3          = map-const:ALFAS
  attc:units         = meter/second
  attc:long_name     = velocity, x-component
  attc:standard_name = sea_water_x_velocity
  attc:coordinates   = zgrid_y zgrid_x
[Delft3D-trim:Virtual:velocity_y]
  Type               = vector-uv2centre-y
  Requires1          = map-series:U1
  Requires2          = map-series:V1
  Requires3          = map-const:ALFAS
  attc:units         = meter/second
  attc:long_name     = velocity, y-component
  attc:standard_name = sea_water_y_velocity
  attc:coordinates   = zgrid_y zgrid_x
[Delft3D-trim:Virtual:velocity_z]
  Type               = alias
  Requires1          = map-series:WPHY
  attc:units         = meter/second
  attc:long_name     = velocity, z-component
  attc:standard_name = upward_sea_water_velocity
  attc:positive      = up
  attc:coordinates   = zgrid_y zgrid_x
[Delft3D-trim:Element:S1]
  Dimension1 = N
  Dimension2 = M
  DimOrder   = 2 1
  Include1   = map-const:XZ
  Include2   = map-const:YZ
  attc:standard_name = sea_surface_height
  attc:positive = up
  attc:coordinates = map-const:YZ map-const:XZ
[Delft3D-trim:Element:KFU]
  Dimension1 = N
  Dimension2 = M
  DimOrder   = 2 1
[Delft3D-trim:Element:KFV]
  Dimension1 = N
  Dimension2 = M
  DimOrder   = 2 1
[Delft3D-trim:Element:U1]
  Dimension1 = N
  Dimension2 = M
  Dimension3 = Layer
  DimOrder   = 3 2 1
[Delft3D-trim:Element:V1]
  Dimension1 = N
  Dimension2 = M
  Dimension3 = Layer
  DimOrder   = 3 2 1
[Delft3D-trim:Element:W]
  Dimension1 = N
  Dimension2 = M
  Dimension3 = LayerInterf
  DimOrder   = 3 2 1
[Delft3D-trim:Element:WPHY]
  Dimension1 = N
  Dimension2 = M
  Dimension3 = Layer
  DimOrder   = 3 2 1
[Delft3D-trim:Element:R1:1]
  Dimension1 = SCALAR
[Delft3D-trim:Element:R1]
  Dimension1 = N
  Dimension2 = M
  Dimension3 = Layer
  Dimension4 = Substance
  DimOrder   = 4 3 2 1
[Delft3D-trim:Virtual:salinity]
  Type       = alias
  Requires1  = map-series:R1
  Requires2  = map-const:NAMCON
  Dimension4 = DUMMY
  DimOrder   = 4 3 2 1
  SliceDim   = 4
  SliceType  = stringindex
  SliceQnt   = 2
  SliceStr   = Salinity
  Include1   = zgrid3
  attc:long_name = salinity
  attc:standard_name = sea_water_salinity
  attc:units = ppt
  attc:coordinates = zgrid_y zgrid_x
[Delft3D-trim:Virtual:temperature]
  Type       = alias
  Requires1  = map-series:R1
  Requires2  = map-const:NAMCON
  Dimension4 = DUMMY
  DimOrder   = 4 3 2 1
  SliceDim   = 4
  SliceType  = stringindex
  SliceQnt   = 2
  SliceStr   = Temperature
  Include1   = zgrid3
  attc:long_name = temperature
  attc:standard_name = sea_water_temperature
  attc:units = Celsius
  attc:coordinates = zgrid_y zgrid_x
[Delft3D-trim:Virtual:suspsedconc]
  Type       = alias
  Requires1  = map-series:R1
  Requires2  = map-const:NAMCON
  Requires3  = map-const:NAMSED
  Dimension4 = SuspSedimentFrac
  DimOrder   = 4 3 2 1
  SliceDim   = 4
  SliceType  = ismember
  SliceQnt   = 2
  SliceSet   = 3
  SliceCaseSens = false
  Include1   = zgrid3
  Include2   = SuspSedimentFrac
  attc:long_name = suspended sediment concentration
  attc:standard_name = concentration_of_suspended_matter_in_sea_water
  attc:units = kilogram meter-3
  attc:coordinates = zgrid_y zgrid_x
[Delft3D-trim:Virtual:spiralflow]
  Type       = alias
  Requires1  = map-series:R1
  Requires2  = map-const:NAMCON
  Dimension4 = DUMMY
  DimOrder   = 4 3 2 1
  SliceDim   = 4
  SliceType  = stringindex
  SliceQnt   = 2
  SliceStr   = Secondary flow
  Include1   = zgrid
  attc:long_name = spiral flow intensity
  attc:coordinates = zgrid_y zgrid_x
[Delft3D-trim:Element:RTUR1:1]
  Dimension1 = SCALAR
[Delft3D-trim:Element:RTUR1]
  Dimension1 = N
  Dimension2 = M
  Dimension3 = LayerInterf
  Dimension4 = TurbQuantity
  DimOrder   = 4 3 2 1
[Delft3D-trim:Virtual:turbenergy]
  Type       = alias
  Requires1  = map-series:RTUR1
  Requires2  = map-const:NAMCON
  Requires3  = map-const:LSTCI
  Dimension4 = DUMMY
  DimOrder   = 4 3 2 1
  SliceDim   = 4
  SliceType  = stringindex
  SliceQnt   = 2
  SliceStr   = Turbulent energy
  SliceShFld = -3
  Include1   = zgrid3
  attc:long_name = turbulent kinetic energy
  attc:coordinates = zgrid_y zgrid_x
[Delft3D-trim:Virtual:energydissip]
  Type       = alias
  Requires1  = map-series:RTUR1
  Requires2  = map-const:NAMCON
  Requires3  = map-const:LSTCI
  Dimension4 = DUMMY
  DimOrder   = 4 3 2 1
  SliceDim   = 4
  SliceType  = stringindex
  SliceQnt   = 2
  SliceStr   = Energy dissipation
  SliceShFld = -3
  Include1   = zgrid3
  attc:long_name = turbulent energy dissipation
  attc:coordinates = zgrid_y zgrid_x
[Delft3D-trim:Element:TAUKSI]
  Dimension1 = N
  Dimension2 = M
  DimOrder   = 2 1
[Delft3D-trim:Element:TAUETA]
  Dimension1 = N
  Dimension2 = M
  DimOrder   = 2 1
[Delft3D-trim:Element:TAUMAX]
  Dimension1 = N
  Dimension2 = M
  DimOrder   = 2 1
[Delft3D-trim:Element:VICWW]
  Dimension1 = N
  Dimension2 = M
  Dimension3 = LayerInterf
  DimOrder   = 3 2 1
[Delft3D-trim:Element:DICWW]
  Dimension1 = N
  Dimension2 = M
  Dimension3 = LayerInterf
  DimOrder   = 3 2 1
[Delft3D-trim:Element:RICH]
  Dimension1 = N
  Dimension2 = M
  Dimension3 = LayerInterf
  DimOrder   = 3 2 1
[Delft3D-trim:Element:RHO:1]
  Dimension1 = SCALAR
[Delft3D-trim:Element:RHO]
  Dimension1 = N
  Dimension2 = M
  Dimension3 = Layer
  DimOrder   = 3 2 1
[Delft3D-trim:Virtual:density]
  Type       = alias
  Requires1  = map-series:RHO
  DimOrder   = 3 2 1
  Include1   = zgrid3
  attc:long_name = density
  attc:standard_name = sea_water_density
  attc:units = kg m-3
  attc:coordinates = zgrid_y zgrid_x
[Delft3D-trim:Element:UMNLDF]
  Dimension1 = N
  Dimension2 = M
  DimOrder   = 2 1
[Delft3D-trim:Element:VMNLDF]
  Dimension1 = N
  Dimension2 = M
  DimOrder   = 2 1
[Delft3D-trim:Element:VICUV]
  Dimension1 = N
  Dimension2 = M
  Dimension3 = Layer
  DimOrder   = 3 2 1
[Delft3D-trim:Element:VORTIC]
  Dimension1 = N
  Dimension2 = M
  Dimension3 = Layer
  DimOrder   = 3 2 1
[Delft3D-trim:Element:ENSTRO]
  Dimension1 = N
  Dimension2 = M
  Dimension3 = Layer
  DimOrder   = 3 2 1
[Delft3D-trim:Element:HYDPRES]
  Dimension1 = N
  Dimension2 = M
  Dimension3 = Layer
  DimOrder   = 3 2 1
-------------------------------------------------------------------------------
[Delft3D-trim:Group:map-infsed-serie]
  Dimension1 = TIME
  TimeType   = trih-type
  TimeVar    = map-info-series:ITMAPC
  TimeOffset = map-const:ITDATE
[Delft3D-trim:Element:ITMAPS]
  Dimension1 = SCALAR
[Delft3D-trim:Element:MORFAC]
  Dimension1 = SCALAR
[Delft3D-trim:Element:MORFT]
  Dimension1 = SCALAR
-------------------------------------------------------------------------------
[Delft3D-trim:Group:map-sed-series]
  Dimension1 = TIME
  TimeType   = trih-type
  TimeVar    = map-info-series:ITMAPC
  TimeOffset = map-const:ITDATE
[Delft3D-trim:Element:WS]
  Dimension1 = N
  Dimension2 = M
  Dimension3 = Layer
  Dimension4 = SuspSedimentFrac
  DimOrder   = 4 3 2 1
[Delft3D-trim:Virtual:bedloadtransp]
  Type       = vector
  Requires1  = bedloadtransp_x
  Requires2  = bedloadtransp_y
  Include1   = zgrid
  Include2   = zactive
[Delft3D-trim:Virtual:bedloadtransp_x]
  Type       = vector-uv2centre-x
  Requires1  = map-sed-series:SBUU
  Requires2  = map-sed-series:SBVV
  Requires3  = map-const:ALFAS
  attc:long_name = bedload transport, x-component
  attc:coordinates = zgrid_y zgrid_x
[Delft3D-trim:Virtual:bedloadtransp_y]
  Type       = vector-uv2centre-y
  Requires1  = map-sed-series:SBUU
  Requires2  = map-sed-series:SBVV
  Requires3  = map-const:ALFAS
  attc:long_name = bedload transport, y-component
  attc:coordinates = zgrid_y zgrid_x
[Delft3D-trim:Element:SBUU]
  Dimension1 = N
  Dimension2 = M
  Dimension3 = SedimentFrac
  DimOrder   = 3 2 1
[Delft3D-trim:Element:SBVV]
  Dimension1 = N
  Dimension2 = M
  Dimension3 = SedimentFrac
  DimOrder   = 3 2 1
[Delft3D-trim:Virtual:suspendedtransp]
  Type       = vector
  Requires1  = suspendedtransp_x
  Requires2  = suspendedtransp_y
  Include1   = zgrid
  Include2   = zactive
[Delft3D-trim:Virtual:suspendedtransp_x]
  Type       = vector-uv2centre-x
  Requires1  = map-sed-series:SSUU
  Requires2  = map-sed-series:SSVV
  Requires3  = map-const:ALFAS
  attc:long_name = suspended transport, x-component
  attc:coordinates = zgrid_y zgrid_x
[Delft3D-trim:Virtual:suspendedtransp_y]
  Type       = vector-uv2centre-y
  Requires1  = map-sed-series:SSUU
  Requires2  = map-sed-series:SSVV
  Requires3  = map-const:ALFAS
  attc:long_name = suspended transport, y-component
  attc:coordinates = zgrid_y zgrid_x
[Delft3D-trim:Element:SSUU]
  Dimension1 = N
  Dimension2 = M
  Dimension3 = SuspSedimentFrac
  DimOrder   = 3 2 1
[Delft3D-trim:Element:SSVV]
  Dimension1 = N
  Dimension2 = M
  Dimension3 = SuspSedimentFrac
  DimOrder   = 3 2 1
[Delft3D-trim:Element:RCA]
  Dimension1 = N
  Dimension2 = M
  Dimension3 = SuspSedimentFrac
  DimOrder   = 3 2 1
[Delft3D-trim:Virtual:transient_depth]
  Type       = alias
  Alternate  = zdepth
  Requires1  = map-sed-series:DPS
  Include1   = zgrid
  attc:units = meter
  attc:long_name = transient morphodynamic depth
  attc:coordinates = zgrid_y zgrid_x
  attf:missing_value = -999.0
  attf:_FillValue = -999.0
[Delft3D-trim:Element:DPS]
  Dimension1 = N
  Dimension2 = M
  DimOrder   = 2 1
  Include1   = map-const:XZ
  Include2   = map-const:YZ
  attc:standard_name = sea_floor_depth_below_sea_level
  attc:positive = down
  attc:coordinates = map-const:YZ map-const:XZ
[Delft3D-trim:Element:BODSED]
  Dimension1 = N
  Dimension2 = M
  Dimension3 = SedimentFrac
  DimOrder   = 3 2 1
[Delft3D-trim:Element:DPSED]
  Dimension1 = N
  Dimension2 = M
  DimOrder   = 2 1
-------------------------------------------------------------------------------
[Delft3D-trim:Group:map-infavg-serie]
  Dimension1 = TIME
  TimeType   = trih-type
  TimeVar    = map-infavg-serie:ITAVGS
  TimeOffset = map-const:ITDATE
[Delft3D-trim:Element:ITAVGS]
  Dimension1 = SCALAR
[Delft3D-trim:Element:MORAVG]
  Dimension1 = SCALAR
[Delft3D-trim:Element:MFTAVG]
  Dimension1 = SCALAR
-------------------------------------------------------------------------------
[Delft3D-trim:Group:map-avg-series]
  Dimension1 = TIME
  TimeType   = trih-type
  TimeVar    = map-infavg-serie:ITAVGS
  TimeOffset = map-const:ITDATE
[Delft3D-trim:Element:SBUUA]
  Dimension1 = N
  Dimension2 = M
  Dimension3 = SedimentFrac
  DimOrder   = 3 2 1
[Delft3D-trim:Element:SBVVA]
  Dimension1 = N
  Dimension2 = M
  Dimension3 = SedimentFrac
  DimOrder   = 3 2 1
[Delft3D-trim:Element:SSUUA]
  Dimension1 = N
  Dimension2 = M
  Dimension3 = SuspSedimentFrac
  DimOrder   = 3 2 1
[Delft3D-trim:Element:SSVVA]
  Dimension1 = N
  Dimension2 = M
  Dimension3 = SuspSedimentFrac
  DimOrder   = 3 2 1
===============================================================================
[Delft3D-wavm:Group:map-series]
  Dimension1 = TIME
  TimeType   = wavm-type
  TimeVar    = map-series:TIME
  TimeOffset = PARAMS:IT01
[Delft3D-wavm:Virtual:grid]
  Type       = vector
  Requires1  = grid_x
  Requires2  = grid_y
  Include1   = active
[Delft3D-wavm:Virtual:grid_x]
  Type       = alias
  Requires1  = map-series:XP
  attc:units = meter
  attc:long_name = grid points, x-coordinate
  attc:active = active
[Delft3D-wavm:Element:XP]
  Dimension1 = N
  Dimension2 = M
  DimOrder   = 2 1
  attc:standard_name = projection_x_coordinate
[Delft3D-wavm:Virtual:grid_y]
  Type       = alias
  Requires1  = map-series:YP
  attc:units = meter
  attc:long_name = grid points, y-coordinate
  attc:active = active
[Delft3D-wavm:Element:YP]
  Dimension1 = N
  Dimension2 = M
  DimOrder   = 2 1
  attc:standard_name = projection_y_coordinate
[Delft3D-wavm:Virtual:waterdepth]
  Type       = alias
  Requires1  = map-series:DEPTH
  Include1   = grid
  attc:units = meter
  attc:long_name = water_depth
  attc:coordinates = grid_y grid_x
  attc:active = active
[Delft3D-wavm:Element:DEPTH]
  Dimension1 = N
  Dimension2 = M
  DimOrder   = 2 1
  Include1   = map-series:XP
  Include2   = map-series:YP
  ?attc:standard_name = sea_water_depth
  attc:coordinates = map-series:YP map-series:XP
[Delft3D-wavm:Virtual:velocity]
  Type       = vector
  Requires1  = velocity_x
  Requires2  = velocity_y
  Include1   = grid
[Delft3D-wavm:Virtual:velocity_x]
  Type       = alias
  Requires1  = map-series:VELOC-X
  Include1   = grid
  attc:units = meter/second
  attc:long_name = water_velocity_x
  attc:coordinates = grid_y grid_x
  attc:active = active
[Delft3D-wavm:Element:VELOC-X]
  Dimension1 = N
  Dimension2 = M
  DimOrder   = 2 1
  Include1   = map-series:XP
  Include2   = map-series:YP
  ?attc:standard_name = sea_water_x_velocity
  attc:coordinates = map-series:YP map-series:XP
[Delft3D-wavm:Virtual:velocity_y]
  Type       = alias
  Requires1  = map-series:VELOC-Y
  Include1   = grid
  attc:units = meter/second
  attc:long_name = water_velocity_y
  attc:coordinates = grid_y grid_x
  attc:active = active
[Delft3D-wavm:Element:VELOC-Y]
  Dimension1 = N
  Dimension2 = M
  DimOrder   = 2 1
  Include1   = map-series:XP
  Include2   = map-series:YP
  ?attc:standard_name = sea_water_y_velocity
  attc:coordinates = map-series:YP map-series:XP
[Delft3D-wavm:Virtual:waveheight]
  Type       = alias
  Requires1  = map-series:HSIGN
  Include1   = grid
  attc:units = meter
  attc:long_name = significant wave height
  attc:coordinates = grid_y grid_x
  attc:active = active
[Delft3D-wavm:Element:HSIGN]
  Dimension1 = N
  Dimension2 = M
  DimOrder   = 2 1
  Include1   = map-series:XP
  Include2   = map-series:YP
  ?attc:standard_name = sea_surface_wind_wave_significant_height
  attc:coordinates = map-series:YP map-series:XP
[Delft3D-wavm:Virtual:meanwavedirection]
  Type       = alias
  Requires1  = map-series:DIR
  Include1   = grid
  attc:long_name = mean wave direction
  attc:coordinates = grid_y grid_x
  attc:active = active
[Delft3D-wavm:Element:DIR]
  Dimension1 = N
  Dimension2 = M
  DimOrder   = 2 1
  Include1   = map-series:XP
  Include2   = map-series:YP
  ?attc:standard_name = sea_surface_wind_wave_to_direction
  attc:coordinates = map-series:YP map-series:XP
[Delft3D-wavm:Virtual:peakwavedirection]
  Type       = alias
  Requires1  = map-series:PDIR
  Include1   = grid
  attc:long_name = peak wave direction
  attc:coordinates = grid_y grid_x
  attc:active = active
[Delft3D-wavm:Element:PDIR]
  Dimension1 = N
  Dimension2 = M
  DimOrder   = 2 1
  Include1   = map-series:XP
  Include2   = map-series:YP
  ?attc:standard_name = sea_surface_wind_wave_to_direction
  attc:coordinates = map-series:YP map-series:XP
[Delft3D-wavm:Virtual:meanwaveperiod]
  Type       = alias
  Requires1  = map-series:PERIOD
  Include1   = grid
  attc:long_name = mean wave period
  attc:coordinates = grid_y grid_x
  attc:active = active
[Delft3D-wavm:Element:PERIOD]
  Dimension1 = N
  Dimension2 = M
  DimOrder   = 2 1
  Include1   = map-series:XP
  Include2   = map-series:YP
  ?attc:standard_name = sea_surface_wind_wave_period
  attc:coordinates = map-series:YP map-series:XP
[Delft3D-wavm:Virtual:peakwaveperiod]
  Type       = alias
  Requires1  = map-series:RTP
  Include1   = grid
  attc:long_name = peak wave period
  attc:coordinates = grid_y grid_x
  attc:active = active
[Delft3D-wavm:Element:RTP]
  Dimension1 = N
  Dimension2 = M
  DimOrder   = 2 1
  Include1   = map-series:XP
  Include2   = map-series:YP
  ?attc:standard_name = sea_surface_wind_wave_period
  attc:coordinates = map-series:YP map-series:XP
[Delft3D-wavm:Virtual:meanwavesteepness]
  Type       = alias
  Requires1  = map-series:STEEPW
  Include1   = grid
  attc:long_name = mean_wave_steepness
  attc:coordinates = grid_y grid_x
  attc:active = active
[Delft3D-wavm:Element:STEEPW]
  Dimension1 = N
  Dimension2 = M
  DimOrder   = 2 1
  Include1   = map-series:XP
  Include2   = map-series:YP
  ?attc:standard_name = sea_surface_wind_wave_steepness
  attc:coordinates = map-series:YP map-series:XP
[Delft3D-wavm:Virtual:meanwavelength]
  Type       = alias
  Requires1  = map-series:WLENGTH
  Include1   = grid
  attc:long_name = mean_wave_length
  attc:coordinates = grid_y grid_x
  attc:active = active
[Delft3D-wavm:Element:WLENGTH]
  Dimension1 = N
  Dimension2 = M
  DimOrder   = 2 1
  Include1   = map-series:XP
  Include2   = map-series:YP
  ?attc:standard_name = sea_surface_wind_wave_length
  attc:coordinates = map-series:YP map-series:XP
[Delft3D-wavm:Virtual:directionalspreading]
  Type       = alias
  Requires1  = map-series:DSPR
  Include1   = grid
  attc:long_name = directional_spreading
  attc:coordinates = grid_y grid_x
  attc:active = active
[Delft3D-wavm:Element:DSPR]
  Dimension1 = N
  Dimension2 = M
  DimOrder   = 2 1
  Include1   = map-series:XP
  Include2   = map-series:YP
  ?attc:standard_name = sea_surface_wind_wave_directional_spreading
  attc:coordinates = map-series:YP map-series:XP
[Delft3D-wavm:Virtual:dissipation]
  Type       = alias
  Requires1  = map-series:DISSIP
  Include1   = grid
  attc:long_name = dissipation
  attc:coordinates = grid_y grid_x
  attc:active = active
[Delft3D-wavm:Element:DISSIP]
  Dimension1 = N
  Dimension2 = M
  DimOrder   = 2 1
  Include1   = map-series:XP
  Include2   = map-series:YP
  ?attc:standard_name = sea_surface_wind_wave_ernergy_dissipation
  attc:coordinates = map-series:YP map-series:XP
[Delft3D-wavm:Virtual:leakage]
  Type       = alias
  Requires1  = map-series:LEAK
  Include1   = grid
  attc:long_name = leakage
  attc:coordinates = grid_y grid_x
  attc:active = active
[Delft3D-wavm:Element:LEAK]
  Dimension1 = N
  Dimension2 = M
  DimOrder   = 2 1
  Include1   = map-series:XP
  Include2   = map-series:YP
  ?attc:standard_name = sea_surface_wind_wave_ernergy_leakage
  attc:coordinates = map-series:YP map-series:XP
[Delft3D-wavm:Virtual:fractionbreaking]
  Type       = alias
  Requires1  = map-series:QB
  Include1   = grid
  attc:long_name = fraction_breaking
  attc:coordinates = grid_y grid_x
  attc:active = active
[Delft3D-wavm:Element:QB]
  Dimension1 = N
  Dimension2 = M
  DimOrder   = 2 1
  Include1   = map-series:XP
  Include2   = map-series:YP
  ?attc:standard_name = sea_surface_wind_wave_breaking_fraction
  attc:coordinates = map-series:YP map-series:XP
[Delft3D-wavm:Virtual:energytransport]
  Type       = vector
  Requires1  = energytransport_x
  Requires2  = energytransport_y
  Include1   = grid
[Delft3D-wavm:Virtual:energytransport_x]
  Type       = alias
  Requires1  = map-series:TRANSP-X
  Include1   = grid
  attc:units = watt/meter
  attc:long_name = energy_transport_x
  attc:coordinates = grid_y grid_x
  attc:active = active
[Delft3D-wavm:Element:TRANSP-X]
  Dimension1 = N
  Dimension2 = M
  DimOrder   = 2 1
  Include1   = map-series:XP
  Include2   = map-series:YP
  ?attc:standard_name = eastward_sea_surface_wind_wave_energy_transport
  attc:coordinates = map-series:YP map-series:XP
[Delft3D-wavm:Virtual:energytransport_y]
  Type       = alias
  Requires1  = map-series:TRANSP-Y
  Include1   = grid
  attc:units = watt/meter
  attc:long_name = energy_transport_y
  attc:coordinates = grid_y grid_x
  attc:active = active
[Delft3D-wavm:Element:TRANSP-Y]
  Dimension1 = N
  Dimension2 = M
  DimOrder   = 2 1
  Include1   = map-series:XP
  Include2   = map-series:YP
  ?attc:standard_name = northward_sea_surface_wind_wave_energy_transport
  attc:coordinates = map-series:YP map-series:XP
[Delft3D-wavm:Virtual:orbitalvelocity]
  Type       = alias
  Requires1  = map-series:UBOT
  Include1   = grid
  attc:long_name = orbital_velocity_magnitude_near_bed
  attc:coordinates = grid_y grid_x
  attc:active = active
[Delft3D-wavm:Element:UBOT]
  Dimension1 = N
  Dimension2 = M
  DimOrder   = 2 1
  Include1   = map-series:XP
  Include2   = map-series:YP
  ?attc:standard_name = orbital_velocity_magnitude_near_bed
  attc:coordinates = map-series:YP map-series:XP
[Delft3D-wavm:Virtual:active]
  Type       = alias
  Requires1  = map-series:CODE
  Include1   = grid
  attc:units = 1
  attc:long_name = active grid point
  attc:coordinates = grid_y grid_x
[Delft3D-wavm:Element:CODE]
  Dimension1 = N
  Dimension2 = M
  DimOrder   = 2 1
  Include1   = map-series:XP
  Include2   = map-series:YP
  attc:coordinates = map-series:YP map-series:XP
-------------------------------------------------------------------------------
[Delft3D-wavm:Group:WIND]
  Dimension1 = TIME
  TimeType   = wavm-type
  TimeVar    = WIND:TIME
  TimeOffset = PARAMS:IT01
[Delft3D-wavm:Virtual:windvelocity]
  Type       = vector
  Requires1  = windvelocity_x
  Requires2  = windvelocity_y
  Include1   = grid
[Delft3D-wavm:Virtual:windvelocity_x]
  Type       = alias
  Requires1  = WIND:WINDU
  Include1   = grid
  attc:long_name = wind_velocity_x
  attc:coordinates = grid_y grid_x
  attc:active = active
[Delft3D-wavm:Element:WINDU]
  Dimension1 = N
  Dimension2 = M
  DimOrder   = 2 1
  Include1   = map-series:XP
  Include2   = map-series:YP
  ?attc:standard_name = eastward_wind_velocity
  attc:coordinates = map-series:YP map-series:XP
[Delft3D-wavm:Virtual:windvelocity_y]
  Type       = alias
  Requires1  = WIND:WINDV
  Include1   = grid
  attc:long_name = wind_velocity_y
  attc:coordinates = grid_y grid_x
  attc:active = active
[Delft3D-wavm:Element:WINDV]
  Dimension1 = N
  Dimension2 = M
  DimOrder   = 2 1
  Include1   = map-series:XP
  Include2   = map-series:YP
  ?attc:standard_name = northward_wind_velocity
  attc:coordinates = map-series:YP map-series:XP
===============================================================================
[Delft3D-hwgxy:Group:map-series]
  Dimension1 = TIME
  TimeType   = wavm-type
  TimeVar    = map-series:TIME
  TimeOffset = PARAMS:IT01
[Delft3D-hwgxy:Virtual:grid]
  Type       = vector
  Requires1  = grid_x
  Requires2  = grid_y
  Include1   = active
[Delft3D-hwgxy:Virtual:grid_x]
  Type       = alias
  Requires1  = map-series:XP
  attc:units = meter
  attc:long_name = grid points, x-coordinate
  attc:active = active
[Delft3D-hwgxy:Element:XP]
  Dimension1 = M
  Dimension2 = N
  DimOrder   = 2 1
  attc:standard_name = projection_x_coordinate
[Delft3D-hwgxy:Virtual:grid_y]
  Type       = alias
  Requires1  = map-series:YP
  attc:units = meter
  attc:long_name = grid points, y-coordinate
  attc:active = active
[Delft3D-hwgxy:Element:YP]
  Dimension1 = M
  Dimension2 = N
  DimOrder   = 2 1
  attc:standard_name = projection_y_coordinate
[Delft3D-hwgxy:Virtual:waterdepth]
  Type       = alias
  Requires1  = map-series:DEPTH
  Include1   = grid
  attc:units = meter
  attc:long_name = water_depth
  attc:coordinates = grid_y grid_x
  attc:active = active
[Delft3D-hwgxy:Element:DEPTH]
  Dimension1 = M
  Dimension2 = N
  DimOrder   = 2 1
  Include1   = map-series:XP
  Include2   = map-series:YP
  ?attc:standard_name = sea_water_depth
  attc:coordinates = map-series:YP map-series:XP
[Delft3D-hwgxy:Virtual:velocity]
  Type       = vector
  Requires1  = velocity_x
  Requires2  = velocity_y
  Include1   = grid
[Delft3D-hwgxy:Virtual:velocity_x]
  Type       = alias
  Requires1  = map-series:VELOC-X
  Include1   = grid
  attc:units = meter/second
  attc:long_name = water_velocity_x
  attc:coordinates = grid_y grid_x
  attc:active = active
[Delft3D-hwgxy:Element:VELOC-X]
  Dimension1 = M
  Dimension2 = N
  DimOrder   = 2 1
  Include1   = map-series:XP
  Include2   = map-series:YP
  ?attc:standard_name = sea_water_x_velocity
  attc:coordinates = map-series:YP map-series:XP
[Delft3D-hwgxy:Virtual:velocity_y]
  Type       = alias
  Requires1  = map-series:VELOC-Y
  Include1   = grid
  attc:units = meter/second
  attc:long_name = water_velocity_y
  attc:coordinates = grid_y grid_x
  attc:active = active
[Delft3D-hwgxy:Element:VELOC-Y]
  Dimension1 = M
  Dimension2 = N
  DimOrder   = 2 1
  Include1   = map-series:XP
  Include2   = map-series:YP
  ?attc:standard_name = sea_water_y_velocity
  attc:coordinates = map-series:YP map-series:XP
[Delft3D-hwgxy:Virtual:waveheight]
  Type       = alias
  Requires1  = map-series:HSIGN
  Include1   = grid
  attc:units = meter
  attc:long_name = significant wave height
  attc:coordinates = grid_y grid_x
  attc:active = active
[Delft3D-hwgxy:Element:HSIGN]
  Dimension1 = M
  Dimension2 = N
  DimOrder   = 2 1
  Include1   = map-series:XP
  Include2   = map-series:YP
  ?attc:standard_name = sea_surface_wind_wave_significant_height
  attc:coordinates = map-series:YP map-series:XP
[Delft3D-hwgxy:Virtual:meanwavedirection]
  Type       = alias
  Requires1  = map-series:DIR
  Include1   = grid
  attc:long_name = mean wave direction
  attc:coordinates = grid_y grid_x
  attc:active = active
[Delft3D-hwgxy:Element:DIR]
  Dimension1 = M
  Dimension2 = N
  DimOrder   = 2 1
  Include1   = map-series:XP
  Include2   = map-series:YP
  ?attc:standard_name = sea_surface_wind_wave_to_direction
  attc:coordinates = map-series:YP map-series:XP
[Delft3D-hwgxy:Virtual:peakwavedirection]
  Type       = alias
  Requires1  = map-series:PDIR
  Include1   = grid
  attc:long_name = peak wave direction
  attc:coordinates = grid_y grid_x
  attc:active = active
[Delft3D-hwgxy:Element:PDIR]
  Dimension1 = M
  Dimension2 = N
  DimOrder   = 2 1
  Include1   = map-series:XP
  Include2   = map-series:YP
  ?attc:standard_name = sea_surface_wind_wave_to_direction
  attc:coordinates = map-series:YP map-series:XP
[Delft3D-hwgxy:Virtual:meanwaveperiod]
  Type       = alias
  Requires1  = map-series:PERIOD
  Include1   = grid
  attc:long_name = mean wave period
  attc:coordinates = grid_y grid_x
  attc:active = active
[Delft3D-hwgxy:Element:PERIOD]
  Dimension1 = M
  Dimension2 = N
  DimOrder   = 2 1
  Include1   = map-series:XP
  Include2   = map-series:YP
  ?attc:standard_name = sea_surface_wind_wave_period
  attc:coordinates = map-series:YP map-series:XP
[Delft3D-hwgxy:Virtual:peakwaveperiod]
  Type       = alias
  Requires1  = map-series:RTP
  Include1   = grid
  attc:long_name = peak wave period
  attc:coordinates = grid_y grid_x
  attc:active = active
[Delft3D-hwgxy:Element:RTP]
  Dimension1 = M
  Dimension2 = N
  DimOrder   = 2 1
  Include1   = map-series:XP
  Include2   = map-series:YP
  ?attc:standard_name = sea_surface_wind_wave_period
  attc:coordinates = map-series:YP map-series:XP
[Delft3D-hwgxy:Virtual:meanwavesteepness]
  Type       = alias
  Requires1  = map-series:STEEPW
  Include1   = grid
  attc:long_name = mean_wave_steepness
  attc:coordinates = grid_y grid_x
  attc:active = active
[Delft3D-hwgxy:Element:STEEPW]
  Dimension1 = M
  Dimension2 = N
  DimOrder   = 2 1
  Include1   = map-series:XP
  Include2   = map-series:YP
  ?attc:standard_name = sea_surface_wind_wave_steepness
  attc:coordinates = map-series:YP map-series:XP
[Delft3D-hwgxy:Virtual:meanwavelength]
  Type       = alias
  Requires1  = map-series:WLENGTH
  Include1   = grid
  attc:long_name = mean_wave_length
  attc:coordinates = grid_y grid_x
  attc:active = active
[Delft3D-hwgxy:Element:WLENGTH]
  Dimension1 = M
  Dimension2 = N
  DimOrder   = 2 1
  Include1   = map-series:XP
  Include2   = map-series:YP
  ?attc:standard_name = sea_surface_wind_wave_length
  attc:coordinates = map-series:YP map-series:XP
[Delft3D-hwgxy:Virtual:directionalspreading]
  Type       = alias
  Requires1  = map-series:DSPR
  Include1   = grid
  attc:long_name = directional_spreading
  attc:coordinates = grid_y grid_x
  attc:active = active
[Delft3D-hwgxy:Element:DSPR]
  Dimension1 = M
  Dimension2 = N
  DimOrder   = 2 1
  Include1   = map-series:XP
  Include2   = map-series:YP
  ?attc:standard_name = sea_surface_wind_wave_directional_spreading
  attc:coordinates = map-series:YP map-series:XP
[Delft3D-hwgxy:Virtual:dissipation]
  Type       = alias
  Requires1  = map-series:DISSIP
  Include1   = grid
  attc:long_name = dissipation
  attc:coordinates = grid_y grid_x
  attc:active = active
[Delft3D-hwgxy:Element:DISSIP]
  Dimension1 = M
  Dimension2 = N
  DimOrder   = 2 1
  Include1   = map-series:XP
  Include2   = map-series:YP
  ?attc:standard_name = sea_surface_wind_wave_ernergy_dissipation
  attc:coordinates = map-series:YP map-series:XP
[Delft3D-hwgxy:Virtual:leakage]
  Type       = alias
  Requires1  = map-series:LEAK
  Include1   = grid
  attc:long_name = leakage
  attc:coordinates = grid_y grid_x
  attc:active = active
[Delft3D-hwgxy:Element:LEAK]
  Dimension1 = M
  Dimension2 = N
  DimOrder   = 2 1
  Include1   = map-series:XP
  Include2   = map-series:YP
  ?attc:standard_name = sea_surface_wind_wave_ernergy_leakage
  attc:coordinates = map-series:YP map-series:XP
[Delft3D-hwgxy:Virtual:fractionbreaking]
  Type       = alias
  Requires1  = map-series:QB
  Include1   = grid
  attc:long_name = fraction_breaking
  attc:coordinates = grid_y grid_x
  attc:active = active
[Delft3D-hwgxy:Element:QB]
  Dimension1 = M
  Dimension2 = N
  DimOrder   = 2 1
  Include1   = map-series:XP
  Include2   = map-series:YP
  ?attc:standard_name = sea_surface_wind_wave_breaking_fraction
  attc:coordinates = map-series:YP map-series:XP
[Delft3D-hwgxy:Virtual:energytransport]
  Type       = vector
  Requires1  = energytransport_x
  Requires2  = energytransport_y
  Include1   = grid
[Delft3D-hwgxy:Virtual:energytransport_x]
  Type       = alias
  Requires1  = map-series:TRANSP-X
  Include1   = grid
  attc:units = watt/meter
  attc:long_name = energy_transport_x
  attc:coordinates = grid_y grid_x
  attc:active = active
[Delft3D-hwgxy:Element:TRANSP-X]
  Dimension1 = M
  Dimension2 = N
  DimOrder   = 2 1
  Include1   = map-series:XP
  Include2   = map-series:YP
  ?attc:standard_name = eastward_sea_surface_wind_wave_energy_transport
  attc:coordinates = map-series:YP map-series:XP
[Delft3D-hwgxy:Virtual:energytransport_y]
  Type       = alias
  Requires1  = map-series:TRANSP-Y
  Include1   = grid
  attc:units = watt/meter
  attc:long_name = energy_transport_y
  attc:coordinates = grid_y grid_x
  attc:active = active
[Delft3D-hwgxy:Element:TRANSP-Y]
  Dimension1 = M
  Dimension2 = N
  DimOrder   = 2 1
  Include1   = map-series:XP
  Include2   = map-series:YP
  ?attc:standard_name = northward_sea_surface_wind_wave_energy_transport
  attc:coordinates = map-series:YP map-series:XP
[Delft3D-hwgxy:Virtual:orbitalvelocity]
  Type       = alias
  Requires1  = map-series:UBOT
  Include1   = grid
  attc:long_name = orbital_velocity_magnitude_near_bed
  attc:coordinates = grid_y grid_x
  attc:active = active
[Delft3D-hwgxy:Element:UBOT]
  Dimension1 = M
  Dimension2 = N
  DimOrder   = 2 1
  Include1   = map-series:XP
  Include2   = map-series:YP
  ?attc:standard_name = orbital_velocity_magnitude_near_bed
  attc:coordinates = map-series:YP map-series:XP
[Delft3D-hwgxy:Virtual:active]
  Type       = alias
  Requires1  = map-series:CODE
  Include1   = grid
  attc:units = 1
  attc:long_name = active grid point
  attc:coordinates = grid_y grid_x
[Delft3D-hwgxy:Element:CODE]
  Dimension1 = M
  Dimension2 = N
  DimOrder   = 2 1
  Include1   = map-series:XP
  Include2   = map-series:YP
  attc:coordinates = map-series:YP map-series:XP
-------------------------------------------------------------------------------
[Delft3D-hwgxy:Group:WIND]
  Dimension1 = TIME
  TimeType   = wavm-type
  TimeVar    = WIND:TIME
  TimeOffset = PARAMS:IT01
[Delft3D-hwgxy:Virtual:windvelocity]
  Type       = vector
  Requires1  = windvelocity_x
  Requires2  = windvelocity_y
  Include1   = grid
[Delft3D-hwgxy:Virtual:windvelocity_x]
  Type       = alias
  Requires1  = WIND:WINDU
  Include1   = grid
  attc:long_name = wind_velocity_x
  attc:coordinates = grid_y grid_x
  attc:active = active
[Delft3D-hwgxy:Element:WINDU]
  Dimension1 = M
  Dimension2 = N
  DimOrder   = 2 1
  Include1   = map-series:XP
  Include2   = map-series:YP
  ?attc:standard_name = eastward_wind_velocity
  attc:coordinates = map-series:YP map-series:XP
[Delft3D-hwgxy:Virtual:windvelocity_y]
  Type       = alias
  Requires1  = WIND:WINDV
  Include1   = grid
  attc:long_name = wind_velocity_y
  attc:coordinates = grid_y grid_x
  attc:active = active
[Delft3D-hwgxy:Element:WINDV]
  Dimension1 = M
  Dimension2 = N
  DimOrder   = 2 1
  Include1   = map-series:XP
  Include2   = map-series:YP
  ?attc:standard_name = northward_wind_velocity
  attc:coordinates = map-series:YP map-series:XP
