Ident  = #Delft3D-FLOW 3.54.27761#
Commnt =                  
Runtxt = #Course model#
         #Western Scheldt#
         #Too coarse grid#
Filcco = #ws-1.grd#
Anglat =  5.2500000e+001
Grdang =  0.0000000e+000
Filgrd = #ws-1.enc#
MNKmax = 229 88 1
Thick  =  1.0000000e+002
Commnt =                  
Fildep = #ws-1.dep#
Commnt =                  
Commnt =                 no. dry points: 0
Commnt =                 no. thin dams: 0
Commnt =                  
Itdate = #2002-12-18#
Tunit  = #M#
Tstart =  0.0000000e+000
Tstop  =  4.3200000e+003
Dt     = 2.5
Tzone  = 0
Commnt =                  
Sub1   = #S   #
Sub2   = #   #
Commnt =                  
Wnsvwp = #N#
Wndint = #Y#
Commnt =                  
Zeta0  =  2.0000000e+000
S0     =  0.0000000e+000
Commnt =                  
Commnt =                 no. open boundaries: 2
Filbnd = #ws-1_2dh.bnd#
FilbcT = #ws-1_2dh.bct#
Filana = #ws-1_2dh.bca#
FilbcC = #ws-1_2dh.bcc#
Rettis =  0.0000000e+000
          0.0000000e+000
Rettib =  0.0000000e+000
          0.0000000e+000
Commnt =                  
Ag     =  9.8100004e+000
Rhow   =  1.0230000e+003
Tempw  =  1.5000000e+001
Salw   =  3.1000000e+001
Wstres =  6.3000002e-004  0.0000000e+000  7.2300001e-003  1.0000000e+002  7.2300001e-003  1.0000000e+002
Rhoa   =  1.0000000e+000
Betac  =  5.0000000e-001
Equili = #N#
Ktemp  = 0
Fclou  =  0.0000000e+000
Sarea  =  0.0000000e+000
Temint = #Y#
Commnt =                  
Roumet = #M#
Ccofu  =  2.6000001e-002
Ccofv  =  2.6000001e-002
Xlo    =  0.0000000e+000
Vicouv =  1.0000000e+000
Dicouv =  1.0000000e+001
Htur2d = #N#
Irov   = 0
Commnt =                  
Iter   =      2
Dryflp = #YES#
Dpsopt = #MEAN#
Dpuopt = #MEAN#
Dryflc =  1.0000000e-001
Dco    = -9.9900000e+002
Tlfsmo =  6.0000000e+001
ThetQH =  0.0000000e+000
Forfuv = #Y#
Forfww = #Y#
Sigcor = #N#
Trasol = #Cyclic-method#
Momsol = #Cyclic#
Commnt =                  
Commnt =                 no. discharges: 0
Commnt =                 no. observation points: 2
Filsta = #ws-1.obs#
Commnt =                 no. drogues: 0
Commnt =                  
Commnt =                  
Commnt =                 no. cross sections: 11
Filcrs = #ws-1.crs#
Commnt =                  
SMhydr = #YYYYY#     
SMderv = #YYYYYY#    
SMproc = #YYYYYYYYYY#
PMhydr = #YYYYYY#    
PMderv = #YYY#       
PMproc = #YYYYYYYYYY#
SHhydr = #YYYY#      
SHderv = #YYYYY#     
SHproc = #YYYYYYYYYY#
SHflux = #YYYY#      
PHhydr = #YYYYYY#    
PHderv = #YYY#       
PHproc = #YYYYYYYYYY#
PHflux = #YYYY#      
Prhis  =  0.0000000e+000 0  0.0000000e+000
Flmap  =  2.8800000e+003 120  4.3200000e+003
Flhis  =  0.0000000e+000 10  4.3200000e+003
Flpp   =  0.0000000e+000 0.0  0.0000000e+000
Flrst  = 1440.0
Commnt =                  
Online = #N#
Commnt =                  
