*
* WL | Delft Hydraulics, Delft3D-QUICKIN, Version 4.15.01, win32, Release, Oct 16 2006, 13:13:5
* File creation date: 14:41:42, 13-12-2006
*
* Coordinate System = Cartesian
*
L001
   100      3
  8.4909677E+03   1.0122581E+04   120
  9.5129032E+03   8.7883871E+03   120
  1.1329677E+04   6.5741935E+03   120
  1.2323226E+04   6.3754839E+03   120
  1.5672903E+04   6.2619355E+03   120
  1.5985161E+04   6.4038710E+03   120
  1.6666452E+04   6.7161290E+03   120
  1.7489677E+04   7.7664516E+03   120
    999.999   999.999   0
  1.7745161E+04   8.0219355E+03   120
  1.8596774E+04   8.5329032E+03   120
  1.9732258E+04   8.0219355E+03   120
  2.1577419E+04   7.3690323E+03   120
  2.4274194E+04   7.6812903E+03   120
  2.5182581E+04   9.3561290E+03   120
  2.5352903E+04   1.0349677E+04   120
  2.5296129E+04   1.1541935E+04   120
  2.5097419E+04   1.1882581E+04   120
  2.4870323E+04   1.2052903E+04   120
  2.4643226E+04   1.2251613E+04   120
  2.4416129E+04   1.2421935E+04   120
  2.4330968E+04   1.2478710E+04   120
  2.4103871E+04   1.2649032E+04   120
  2.3734839E+04   1.2932903E+04   120
  2.3621290E+04   1.3046452E+04   120
  2.3564516E+04   1.3131613E+04   120
  2.3507742E+04   1.3160000E+04   120
  2.3507742E+04   1.3245161E+04   120
    999.999   999.999   0
  2.3536129E+04   1.3642581E+04   120
  2.4103871E+04   1.4181935E+04   120
  2.4302581E+04   1.4238710E+04   120
  2.5097419E+04   1.3983226E+04   120
  2.5636774E+04   1.3670968E+04   120
  2.6545161E+04   1.3642581E+04   120
  2.7567097E+04   1.4210323E+04   120
  2.7254839E+04   1.5345806E+04   120
  2.6772258E+04   1.5885161E+04   120
  2.5920645E+04   1.6509677E+04   120
  2.4643226E+04   1.6992258E+04   120
  2.2088387E+04   1.7134194E+04   120
  2.1634194E+04   1.7077419E+04   120
  1.8738710E+04   1.6850323E+04   120
  1.3685806E+04   1.6310968E+04   120
  1.2124516E+04   1.6140645E+04   120
  1.1074194E+04   1.7105806E+04   120
  9.8251613E+03   1.7616774E+04   120
    999.999   999.999   0
  9.3993548E+03   1.7872258E+04   120
  9.0587097E+03   1.8212903E+04   120
  9.1722581E+03   1.8610323E+04   120
  9.2290323E+03   1.8752258E+04   120
  9.6548387E+03   1.8837419E+04   120
  9.8819355E+03   1.8950968E+04   120
  1.0109032E+04   1.9121290E+04   120
  1.0165806E+04   1.9121290E+04   120
  1.0307742E+04   1.9092903E+04   120
  1.0364516E+04   1.9036129E+04   120
  1.0478065E+04   1.8894194E+04   120
  1.0534839E+04   1.8837419E+04   120
  1.0591613E+04   1.8752258E+04   120
  1.0620000E+04   1.8723871E+04   120
  1.0705161E+04   1.8667097E+04   120
  1.0790323E+04   1.8638710E+04   120
  1.0847097E+04   1.8610323E+04   120
  1.0903871E+04   1.8610323E+04   120
  1.0960645E+04   1.8581935E+04   120
  1.1017419E+04   1.8581935E+04   120
  1.1074194E+04   1.8581935E+04   120
  1.1244516E+04   1.8638710E+04   120
  1.1329677E+04   1.8695484E+04   120
  1.1414839E+04   1.8809032E+04   120
  1.1443226E+04   1.8922581E+04   120
  1.1443226E+04   1.9036129E+04   120
  1.1386452E+04   1.9206452E+04   120
  1.1272903E+04   1.9376774E+04   120
  1.1045806E+04   1.9575484E+04   120
  1.0932258E+04   1.9717419E+04   120
  1.0847097E+04   1.9774194E+04   120
  1.0648387E+04   1.9944516E+04   120
  1.0392903E+04   2.0058065E+04   120
  1.0279355E+04   2.0058065E+04   120
  1.0137419E+04   2.0058065E+04   120
  9.6832258E+03   2.0058065E+04   120
  9.2006452E+03   1.9944516E+04   120
  8.9735484E+03   1.9859355E+04   120
  8.6896774E+03   1.9717419E+04   120
  8.4909677E+03   1.9575484E+04   120
  8.4341935E+03   1.9490323E+04   120
  8.3490323E+03   1.9433548E+04   120
  8.3490323E+03   1.9405161E+04   120
  8.2354839E+03   1.9348387E+04   120
  8.0651613E+03   1.9064516E+04   120
  8.0083871E+03   1.8667097E+04   120
  7.9516129E+03   1.8127742E+04   120
  8.0367742E+03   1.7162581E+04   120
  7.9800000E+03   1.5856774E+04   120
  7.8664516E+03   1.3500645E+04   120
  7.8948387E+03   1.2194839E+04   120
  8.3490323E+03   1.0378065E+04   120
