*
* WL | Delft Hydraulics, Delft3D-QUICKIN, Version 4.15.04.00, win32, Release, Jan 24 2008, 16:47:3
* File creation date: 17:32:40, 24-07-2008
*
* Coordinate System = Cartesian
*
L001
    50      3
  8.4909677E+03   1.0122581E+04   120
  9.5129032E+03   8.7883871E+03   120
  1.5985161E+04   6.4038710E+03   120
  1.6666452E+04   6.7161290E+03   120
  1.7489677E+04   7.7664516E+03   120
    999.999   999.999   0
  1.7745161E+04   8.0219355E+03   120
  1.7892211E+04   1.1007611E+04   120
  1.9732258E+04   8.0219355E+03   120
  2.1577419E+04   7.3690323E+03   120
  2.4274194E+04   7.6812903E+03   120
  2.5182581E+04   9.3561290E+03   120
  2.5352903E+04   1.0349677E+04   120
  2.5296129E+04   1.1541935E+04   120
  2.5097419E+04   1.1882581E+04   120
  2.4870323E+04   1.2052903E+04   120
  2.4643226E+04   1.2251613E+04   120
  2.4416129E+04   1.2421935E+04   120
  2.4330968E+04   1.2478710E+04   120
  2.4103871E+04   1.2649032E+04   120
  2.3734839E+04   1.2932903E+04   120
  2.3621290E+04   1.3046452E+04   120
  2.3564516E+04   1.3131613E+04   120
  2.3507742E+04   1.3160000E+04   120
  2.3507742E+04   1.3245161E+04   120
    999.999   999.999   0
  2.3536129E+04   1.3642581E+04   120
  2.4103871E+04   1.4181935E+04   120
  2.4302581E+04   1.4238710E+04   120
  2.5097419E+04   1.3983226E+04   120
  2.5636774E+04   1.3670968E+04   120
  2.6545161E+04   1.3642581E+04   120
  2.7567097E+04   1.4210323E+04   120
  2.7254839E+04   1.5345806E+04   120
  2.6772258E+04   1.5885161E+04   120
  2.5920645E+04   1.6509677E+04   120
  2.4643226E+04   1.6992258E+04   120
  2.1668364E+04   1.5391337E+04   120
  2.1634194E+04   1.7077419E+04   120
  1.8738710E+04   1.6850323E+04   120
  1.3685806E+04   1.6310968E+04   120
  1.1832047E+04   1.3112430E+04   120
  1.1074194E+04   1.7105806E+04   120
  9.8251613E+03   1.7616774E+04   120
    999.999   999.999   0
  9.3494584E+03   1.6537282E+04   120
  4.8884592E+03   1.6209869E+04   120
  1.0638646E+04   1.2792498E+04   120
  4.8270693E+03   1.2117210E+04   120
  8.3490323E+03   1.0378065E+04   120
