*
* WL | Delft Hydraulics, Delft3D-QUICKIN, Version 4.15.04.00, win32, Release, Jan 24 2008, 16:47:3
* File creation date: 17:31:29, 24-07-2008
*
Using C:\Delft3D\w32\quickin\default\quickin.ini
Found Keyword: INITSCREEN
Found Keyword: GRAFCOL
Found Keyword: GRAFCOL2
Found Keyword: TEXTCOL
Found Keyword: CURSORSPEED
Found Keyword: NPOS
Found Keyword: CIRCLE
Found Keyword: AUTOSCALE
Found Keyword: TEXTSIZE
Found Keyword: DEFAULT
Found Keyword: HARDCOPYDEVICE
Found Keyword: HARDCOPYOPTIONS
Found Keyword: KEEPSTARTDIR
Found Keyword: RGBVALUES
Found Keyword: BACKGROUNDRGB
Found Keyword: TEKAL BLOCK INDICATORS
Found Keyword: TXSIZE
Found Keyword: XSC
Found Keyword: XS2C
Found Keyword: TIMESTEP
Found Keyword: AVERAGING
Found Keyword: SMOOTH
Found Keyword: INTERNAL DIFFUSION
Found Keyword: ANIMATIONSPEED
Found Keyword: EXCEEDANCE CLASSES SECOND DEPTH
Found Keyword: COLOUR CLASSES SECOND DEPTH
Found Keyword: POSITION OF TIME/DATE FOR ANIMATION
Found Keyword: RGBVALUES
Found Keyword: BACKGROUNDRGB
 Max. grid dimensions MMAX, NMAX :         1000        1000
 Max. sample dimension NSMAX     :      1000000
 Resolution graphics screen      :         1024         768
 Resolution text     screen      :          128          48
 Number of colours available     :          256
Opened file: D:\matlabtools\mc_toolbox\mc_applications\mc_ldb\ldbTool\exampleLDB\example1.ldb   
Closed file: D:\matlabtools\mc_toolbox\mc_applications\mc_ldb\ldbTool\exampleLDB\example1.ldb   
You Opened File: D:\matlabtools\mc_toolbox\mc_applications\mc_ldb\ldbTool\exampleLDB\example1.ldb
Opened file: D:\matlabtools\mc_toolbox\mc_applications\mc_ldb\ldbTool\exampleLDB\example2.ldb   
Closed file: D:\matlabtools\mc_toolbox\mc_applications\mc_ldb\ldbTool\exampleLDB\example2.ldb   
You Opened File: D:\matlabtools\mc_toolbox\mc_applications\mc_ldb\ldbTool\exampleLDB\example2.ldb
Opened file: D:\matlabtools\mc_toolbox\mc_applications\mc_ldb\ldbTool\exampleLDB\example1.ldb   
Closed file: D:\matlabtools\mc_toolbox\mc_applications\mc_ldb\ldbTool\exampleLDB\example1.ldb   
You Opened File: D:\matlabtools\mc_toolbox\mc_applications\mc_ldb\ldbTool\exampleLDB\example1.ldb
Opened file: D:\matlabtools\mc_toolbox\mc_applications\mc_ldb\ldbTool\exampleLDB\example1a.ldb   
Closed file: D:\matlabtools\mc_toolbox\mc_applications\mc_ldb\ldbTool\exampleLDB\example1a.ldb   
You Saved File: D:\matlabtools\mc_toolbox\mc_applications\mc_ldb\ldbTool\exampleLDB\example1a.ldb
